REMARK  7 active torsions:
REMARK  status: ('A' for Active; 'I' for Inactive)
REMARK    1  A    between atoms: C1_2  and  N_3 
REMARK    2  A    between atoms: C9_13  and  O_14 
REMARK    3  A    between atoms: O_14  and  C10_15 
REMARK    4  A    between atoms: C13_18  and  N3_19 
REMARK       I    between atoms: N3_19  and  C14_21 
REMARK    5  A    between atoms: C14_21  and  C15_23 
REMARK    6  A    between atoms: C15_23  and  C16_24 
REMARK       I    between atoms: C16_24  and  N4_26 
REMARK    7  A    between atoms: N4_26  and  C17_28 
ROOT
HETATM    1  C10 UNL A   1      -1.796  -7.755   2.417  1.00  0.00     0.114 A 
HETATM    2  C11 UNL A   1      -1.763  -8.494   3.608  1.00  0.00     0.043 A 
HETATM    3  C12 UNL A   1      -2.917  -9.154   4.064  1.00  0.00     0.032 A 
HETATM    4  C13 UNL A   1      -4.119  -9.058   3.340  1.00  0.00     0.037 A 
HETATM    5  C23 UNL A   1      -4.152  -8.314   2.151  1.00  0.00     0.074 A 
HETATM    6  C24 UNL A   1      -2.999  -7.659   1.688  1.00  0.00     0.152 A 
HETATM    7  F1  UNL A   1      -3.058  -6.942   0.545  1.00  0.00    -0.203 F 
ENDROOT
BRANCH   1   8
HETATM    8  O   UNL A   1      -0.649  -7.132   1.982  1.00  0.00    -0.306 OA
BRANCH   8   9
HETATM    9  C9  UNL A   1      -0.027  -7.445   0.796  1.00  0.00     0.097 A 
HETATM   10  C8  UNL A   1      -0.158  -8.702   0.201  1.00  0.00     0.058 A 
HETATM   11  C7  UNL A   1       0.513  -8.965  -0.999  1.00  0.00     0.120 A 
HETATM   12  N2  UNL A   1       1.290  -8.034  -1.583  1.00  0.00    -0.260 NA
HETATM   13  C6  UNL A   1       1.441  -6.812  -1.040  1.00  0.00     0.077 A 
HETATM   14  C5  UNL A   1       2.247  -5.683  -1.560  1.00  0.00     0.054 A 
HETATM   15  C25 UNL A   1       0.784  -6.503   0.168  1.00  0.00     0.068 A 
HETATM   16  C4  UNL A   1       2.215  -4.529  -0.792  1.00  0.00     0.038 A 
HETATM   17  C3  UNL A   1       2.889  -3.297  -1.070  1.00  0.00     0.090 A 
HETATM   18  S   UNL A   1       1.206  -4.861   0.566  1.00  0.00    -0.083 SA
HETATM   19  N1  UNL A   1       3.697  -3.048  -2.147  1.00  0.00    -0.241 NA
HETATM   20  C26 UNL A   1       2.847  -2.155  -0.315  1.00  0.00     0.124 A 
HETATM   21  C2  UNL A   1       4.140  -1.807  -2.091  1.00  0.00     0.210 A 
HETATM   22  N   UNL A   1       3.632  -1.215  -0.947  1.00  0.00    -0.349 N 
BRANCH  22  23
HETATM   23  C1  UNL A   1       3.869   0.163  -0.497  1.00  0.00     0.124 C 
HETATM   24  C   UNL A   1       3.117   1.208  -1.345  1.00  0.00     0.027 C 
ENDBRANCH  22  23
ENDBRANCH   8   9
ENDBRANCH   1   8
BRANCH   4  25
HETATM   25  N3  UNL A   1      -5.293  -9.736   3.754  1.00  0.00    -0.327 N 
HETATM   26  H3  UNL A   1      -5.925 -10.004   3.016  1.00  0.00     0.169 HD
HETATM   27  C14 UNL A   1      -5.712 -10.048   5.029  1.00  0.00     0.231 C 
HETATM   28  O1  UNL A   1      -5.124  -9.717   6.038  1.00  0.00    -0.273 OA
BRANCH  27  29
HETATM   29  C15 UNL A   1      -6.984 -10.834   5.095  1.00  0.00     0.206 C 
BRANCH  29  30
HETATM   30  C16 UNL A   1      -8.167  -9.919   5.162  1.00  0.00     0.231 C 
HETATM   31  O2  UNL A   1      -8.937  -9.807   4.230  1.00  0.00    -0.273 OA
HETATM   32  N4  UNL A   1      -8.286  -9.227   6.347  1.00  0.00    -0.327 N 
HETATM   33  H4  UNL A   1      -7.523  -9.345   6.997  1.00  0.00     0.169 HD
BRANCH  32  34
HETATM   34  C17 UNL A   1      -9.301  -8.323   6.752  1.00  0.00     0.034 A 
HETATM   35  C18 UNL A   1     -10.643  -8.501   6.367  1.00  0.00     0.032 A 
HETATM   36  C19 UNL A   1     -11.629  -7.602   6.810  1.00  0.00     0.044 A 
HETATM   37  C20 UNL A   1     -11.279  -6.530   7.646  1.00  0.00     0.116 A 
HETATM   38  F   UNL A   1     -12.227  -5.674   8.080  1.00  0.00    -0.206 F 
HETATM   39  C21 UNL A   1      -9.944  -6.356   8.038  1.00  0.00     0.044 A 
HETATM   40  C22 UNL A   1      -8.957  -7.254   7.596  1.00  0.00     0.032 A 
ENDBRANCH  32  34
ENDBRANCH  29  30
ENDBRANCH  27  29
ENDBRANCH   4  25
TORSDOF 7
